LAMMPS (14 May 2016)
#==============================================================================
#  m H E X
#  replaced ave/spatial by ave/chunk!
#==============================================================================

# define variables
#------------------------------------------------------------------------------

variable    dtnvt equal 0.004   # time* step for pre-equil. NVT
variable    stnvt equal 1e4     # time steps for "
variable    dtnve equal 0.004   # time* step for final NVE
variable    stnve equal 1e4     # time steps for "
variable    dtpro equal 0.004   # time* step for NEMD run
variable    stpro equal 2e5     # time steps for "

# reference (!) system values
#------------------------------------------------------------------------------
variable    Tred  equal 0.72    # T* = T*kB/epsilon
variable    nred  equal 0.844	# n* = (N/V)*sigma^3
variable    rc    equal 3.0     # LJ cut-off /sigma
variable    nbins equal 120     # number of bins for profiles

variable    Nresc equal 1       # @NEMD: rescale every N steps
variable    DTred equal 0.33

# calc values
#------------------------------------------------------------------------------
variable    Dex   equal 1*100
variable    Tav equal 0.72
variable    T2  equal 0.72*2.0
variable    Thi equal 0.72+(0.33/2.0)
variable    Tlo equal 0.72-(0.33/2.0)

# setup system
#------------------------------------------------------------------------------
units           lj
dimension       3
boundary        p p p

read_data       mix.data
  orthogonal box = (0 0 0) to (10.5816 10.5816 21.1633)
  reading atoms ...
  2000 atoms
  reading velocities ...
  2000 velocities

pair_style   	lj/cut 3
pair_coeff   	1 1 1.0 0.5964668
pair_coeff   	2 2 1.0 1.1929336
pair_modify     shift yes mix arithmetic
neighbor        0.8 bin

group           small type 1
1000 atoms in group small
group           large type 2
1000 atoms in group large

velocity     	all create 0.72 102486 mom yes rot yes dist gaussian

#==============================================================================
# Annealing RUN
#==============================================================================
print           " "

print           " "

print           "<><><><><><><><> Start annealing.. <><><><><><><><>"
<><><><><><><><> Start annealing.. <><><><><><><><>
thermo_style    custom step time temp press ke pe etotal
thermo       	1000
timestep     	0.002

# Heating up: Tav --> 2*Tav
#------------------------------------------------------------------------------
print           " "

--> heat up to 1.44
fix             NVT0 all temp/rescale 1 0.72 1.44 0.0001 1.0
run             20000
  1 neighbor list requests
  update every 1 steps, delay 10 steps, check yes
Step Time Temp Press KinEng PotEng TotEng
0            0         0.72     23.94097      1.07946    1.4436396    2.5230996
Averages over the last 11 of 21 rows, steps 10000 to 20000:
Temp Press KinEng PotEng TotEng
1.25996 24.3965 1.889 1.44364 3.33264
Loop time of 13.0064 on 4 procs for 20000 steps with 2000 atoms

# cooling down:   2*Tav --> Tav
#------------------------------------------------------------------------------
print           " "

--> cool down to 0.72
unfix           NVT0
fix             NVT1 all temp/rescale 1 1.44 0.72  0.0001 1.0
run             20000
Step Time Temp Press KinEng PotEng TotEng
20000           40     1.439928    24.548286    2.1588121    1.4436396    3.6024517
Averages over the last 11 of 21 rows, steps 30000 to 40000:
Temp Press KinEng PotEng TotEng
0.900036 24.0928 1.34938 1.44364 2.79302
Loop time of 12.6497 on 4 procs for 20000 steps with 2000 atoms

print           "--> finished annealing!"
--> finished annealing!

#==============================================================================
# Pre-Equilibration (NVT) RUN
#==============================================================================
print           " "

print           " "

print           "<><><><><><><><> Start pre-equilibration (NVT).. <><><><><><><><>"
<><><><><><><><> Start pre-equilibration (NVT).. <><><><><><><><>
unfix           NVT1
reset_timestep  0
timestep     	0.004
thermo       	1000

variable        Nsteps   equal 10000
variable        Nevery   equal 5
variable        Nfreq    equal 100
variable        Nrepeat  equal (100/5)-1

compute         myKE all ke
compute         myPE all pe
variable        myTE equal c_myKE+c_myPE
variable        myT  equal temp

fix             ETOT all ave/time 5 19 100 c_myKE c_myPE v_myTE v_myT                                    mode scalar ave running file energy_nvt.dat

fix          	NVT2 all nvt temp 0.72 0.72 0.5

run             10000
Step Time Temp Press KinEng PotEng TotEng
0           80         0.72     23.94097      1.07946    1.4436396    2.5230996
Averages over the last 6 of 11 rows, steps 5000 to 10000:
Temp Press KinEng PotEng TotEng
0.711465 -0.203123 1.06666 -4.85417 -3.78751
Loop time of 7.72011 on 4 procs for 10000 steps with 2000 atoms

print           "--> finished pre-equilibration!"
--> finished pre-equilibration!

#==============================================================================
# Energy adjustment
#==============================================================================
print           " "

print           " "

print           "<><><><><><><><> Do energy adjustment: <><><><><><><><>"
<><><><><><><><> Do energy adjustment: <><><><><><><><>
variable        Nsteps  equal 10
variable        dt      equal 0.001
variable        Eave    equal f_ETOT[3]
variable        Tave    equal f_ETOT[4]
variable        DEtot   equal v_Eave-v_myTE
variable        flux    equal 286.09352192188/(10*0.001)
print           "-----------------------------------------"
<T>    = 0.771634063505065
<E>    = -7308.39474448527
E_last = -7594.48826640715
DeltaE = 286.09352192188
flux   = 28609.352192188
print           "-----------------------------------------"

unfix           NVT2
unfix           ETOT

fix             EAD all heat 1 28609.352192188
fix             NVE all nve

timestep     	0.001
reset_timestep  0
thermo          1
run             10
Step Time Temp Press KinEng PotEng TotEng
0          120   0.70524804  -0.17708918    1.0573431   -4.8545873   -3.7972441
Loop time of 0.00919127 on 4 procs for 10 steps with 2000 atoms

variable        etot equal etotal*atoms
--> E_last = -7308.3950510442

#==============================================================================
# Final-Equilibration (NVE) RUN
#==============================================================================
print           " "

print           " "

print           "<><><><> Start final-equilibration (NVE).. <><><><>"
<><><><> Start final-equilibration (NVE).. <><><><>
unfix           EAD
timestep     	0.004
reset_timestep  0

variable        Nsteps   equal 10000
variable        Nevery   equal 5
variable        Nfreq    equal 100
variable        Nrepeat  equal (100/5)-1

fix             ETOT2 all ave/time 5 19 100 c_myKE c_myPE v_myTE v_myT                                    mode scalar ave running file energy_nve.dat

fix             AVE all ave/time 5 19 100 c_myKE c_myPE v_myTE v_myT                                    mode scalar ave one file energy_nve_one.dat
thermo       	1000
run             10000
Step Time Temp Press KinEng PotEng TotEng
0       120.01   0.80156494  -0.11385607    1.2017462   -4.8559438   -3.6541975
Averages over the last 6 of 11 rows, steps 5000 to 10000:
Temp Press KinEng PotEng TotEng
0.764038 0.0473619 1.14548 -4.79969 -3.65421
Loop time of 8.98753 on 4 procs for 10000 steps with 2000 atoms

write_data      finalEquil.data
print           "--> finished final-equilibration!"
--> finished final-equilibration!

variable        Tnvta equal f_ETOT2[4]
variable        Eave  equal f_ETOT2[3]
print           "-----------------------------------------"
T*_target = 0.72
<T*>      = 0.766755469866107
<E>       = -7308.37349729733
print           "-----------------------------------------"

#==============================================================================
#  N  E  M  D (mHEX)
#==============================================================================
unfix           AVE
unfix           ETOT2
reset_timestep  0
timestep        0.004

# box dimensions
variable        Lz  equal zhi-zlo
variable        Lx  equal xhi-xlo
variable        Ly  equal yhi-ylo

# define regions & set HEX
#------------------------------------------------------------------------------
variable        lz   equal lz
variable        dz   equal 1.0
variable        cbl  equal 21.163257/2.0-1
variable        cbh  equal 21.163257/2.0+1
variable        h2bl equal 21.163257-1

# set up the "hot region" at the left and right end of the box
# and the "cold region" in the middle of the box
region          hot1 block INF INF INF INF 0 1 units box
region          hot2 block INF INF INF INF 20.163257 21.163257 units box
region          hot  union 2 hot1 hot2 units box
region          cold block INF INF INF INF 9.5816285  11.5816285 units box

# this calculates the temperature using only the atoms
# in the "hot region" resp. in the "cold region"
compute         hot_temp  all temp/region hot
compute         cold_temp all temp/region cold

# set up a basic velocity rescale for the hot/cold region
fix             hot_rescale  all temp/rescale 1 0.885 0.885 0.0001 1.0
fix             cold_rescale all temp/rescale 1 0.555 0.555 0.0001 1.0

# change the thermostat to only act on the "hot/cold region"
# this is done by passing it the "hot/cold temp" compute that we defined above
fix_modify      hot_rescale  temp hot_temp
fix_modify      cold_rescale temp cold_temp

# ensure that linear momentum is conserved
# despite the "thermostatting" by velocity rescaling
fix             cons_mom all momentum 1 linear 1 1 1

# write out cumulative exchanged energy (independent of thermo!)
variable        myst equal step
variable        myti equal time
variable        mycx equal f_cold_rescale
variable        myhx equal f_hot_rescale

# Production Run
#-------------------------------------------------------------------
variable        Nevery   equal 10
variable        Nblocks  equal 4
variable        BINWIDTH equal 21.163257/120
variable        Nsteps   equal 200000
variable        Nfreq    equal 200000/4
variable        Nrepeat  equal (50000/10)-1

compute         myStr all stress/atom NULL virial
compute         myKEa all ke/atom
compute         myPEa all pe/atom

variable 	    temp atom c_myKEa/1.5
variable        jKin atom c_myKEa*vz
variable        jPot atom c_myPEa*vz
variable        jCol atom -((c_myStr[3]*vz)+(c_myStr[5]*vx)+(c_myStr[6]*vy))
variable        jTot atom v_jKin+v_jPot+v_jCol

# define profile chunks
compute         profile all chunk/atom bin/1d z lower 0.176360475 units box

# temperature profile
fix             TPROFILE all ave/chunk 10 4999 50000 profile                                          v_temp file temp_prof.dat
# density profile
fix             DENSPROF all ave/chunk 10 4999 50000 profile                                          density/number file dens_prof.dat
# flux profile
fix             JCPROF   all ave/chunk 10 4999 50000 profile                                          v_jKin v_jPot v_jCol v_jTot file flux_prof.dat

# density profile / type resolved
fix             DENSPROF1 small ave/chunk 10 4999 50000 profile                                          density/number file dens_prof1.dat
fix             DENSPROF2 large ave/chunk 10 4999 50000 profile                                          density/number file dens_prof2.dat

# redifine stat. value for energy tracking
variable        Nfreq    equal 100
variable        Nrepeat  equal (100/10)-1

# energy tracking
fix             AVE2 all ave/time 10 9 100 c_myKE c_myPE v_myTE v_myT                                    mode scalar ave one file energy_nemd.dat
# start run
fix             NVE all nve
thermo_style    custom step time temp press ke pe etotal
thermo          1000
run             200000
Step Time Temp Press KinEng PotEng TotEng
0       160.01   0.77369015  -0.03848737     1.159955   -4.8141028   -3.6541479
Averages over the last 101 of 201 rows, steps 100000 to 200000:
Temp Press KinEng PotEng TotEng
0.667627 -0.226628 1.00094 -5.05229 -4.05135
Loop time of 231.749 on 4 procs for 200000 steps with 2000 atoms

write_data      nemd.data

#------------------------------------------------------------------------------
print           "<<finished>>"
<<finished>>
# EOF
