LAMMPS (14 May 2016)
#==============================================================================
# Cubic system with NXmol^3 Bmim Br molecules
#==============================================================================

# define variables
#------------------------------------------------------------------------------
variable    NXmol equal 40
variable    T     equal 320
variable    dens  equal 1.3000

variable    dt_def  equal 1.0
variable    st_def  equal 1000
variable    dt_nvt  equal 1.0
variable    st_nvt  equal 1000

# calc values
#------------------------------------------------------------------------------
variable    NmolSet equal (40)^3

# setup system
#------------------------------------------------------------------------------
units           real
boundary        p p p
atom_style      full
pair_style      lj/cut/coul/long 16.0
bond_style      harmonic
angle_style     harmonic
dihedral_style  opls
improper_style  harmonic
pair_modify     mix arithmetic
kspace_style    pppm 1.0e-5
neigh_modify    delay 0 every 1 check no once no page 500000 one 15000
special_bonds   lj/coul 0.0 0.0 0.5
read_data       bmimbr.data
  orthogonal box = (-8 -4 -6) to (6 8 8)
  reading atoms ...
  26 atoms
  scanning bonds ...
  scanning angles ...
  scanning dihedrals ...
  scanning impropers ...
  reading bonds ...
  25 bonds
  reading angles ...
  45 angles
  reading dihedrals ...
  59 dihedrals
  reading impropers ...
  5 impropers
replicate       40 40 40
  orthogonal box = (-8 -4 -6) to (552 476 554)
  1664000 atoms
  1600000 bonds
  2880000 angles
  3776000 dihedrals
  320000 impropers

# calc values
#------------------------------------------------------------------------------
variable    pre_box equal (mass(all)/(6.022141E23*1.3))^(1/3)*100000000
variable    V equal vol
variable    atoms equal count(all)
variable    st_def2 equal ceil(1000/2)

# write info file
#------------------------------------------------------------------------------
print "# BmimBr cubic " file info.dat screen no

# init. prep. run (->density)
#==============================================================================
timestep    1
velocity    all create $T 1025 dist gaussian
velocity    all create 320 1025 dist gaussian
thermo_style custom step temp etotal pe ke epair press vol
thermo      100

#dump        TRAJ all atom 100 traj.dump

fix VSCALE  all temp/rescale 1 $T $T 1.0 1.0
fix VSCALE  all temp/rescale 1 320 $T 1.0 1.0
fix VSCALE  all temp/rescale 1 320 320 1.0 1.0
fix NVE all nve
fix DEF all deform 1 x final 0.0 261.653254698726 y final 0.0 261.653254698726 z final 0.0 261.653254698726 units box

run 500
PPPM initialization ...
  G vector (1/distance) = 0.15258
  grid = 144 125 144
  stencil order = 5
  estimated absolute RMS force accuracy = 0.00380464
  estimated relative force accuracy = 1.14576e-05
  3d grid and FFT values/proc = 62197 54000
  1 neighbor list requests
  update every 1 steps, delay 0 steps, check no
Step Temp TotEng PotEng KinEng E_pair Press Volume
0          320    4505820.3    2918599.5    1587220.8   -1762090.4   -4882.8427  1.50528e+08
Loop time of 1142.09 on 64 procs for 500 steps with 1664000 atoms

unfix DEF

run 500
PPPM initialization ...
  G vector (1/distance) = 0.168168
  grid = 90 90 90
  stencil order = 5
  estimated absolute RMS force accuracy = 0.00306518
  estimated relative force accuracy = 9.2307e-06
  3d grid and FFT values/proc = 21952 16200
Step Temp TotEng PotEng KinEng E_pair Press Volume
500          320   -917436.86   -2504657.6    1587220.8   -3737160.3    58623.752     17913417
Loop time of 1704.22 on 64 procs for 500 steps with 1664000 atoms

unfix VSCALE
unfix NVE

# NVT run
#==============================================================================
timestep    1
fix         NVT all nvt temp $T $T 100
fix         NVT all nvt temp 320 $T 100
fix         NVT all nvt temp 320 320 100
run         1000
PPPM initialization ...
  G vector (1/distance) = 0.168168
  grid = 90 90 90
  stencil order = 5
  estimated absolute RMS force accuracy = 0.00306518
  estimated relative force accuracy = 9.2307e-06
  3d grid and FFT values/proc = 21952 16200
Step Temp TotEng PotEng KinEng E_pair Press Volume
1000    320.65987   -2714195.3   -4304689.1    1590493.8   -5257599.1    15469.057     17913417
Averages over the last 6 of 11 rows, steps 1500 to 2000:
Temp TotEng PotEng KinEng E_pair Press Volume
320.543 -2.74096e+06 -4.33088e+06 1.58992e+06 -5.44062e+06 9817.71 1.79134e+07
Loop time of 3628.8 on 64 procs for 1000 steps with 1664000 atoms

write_data  restart.data
PPPM initialization ...
  G vector (1/distance) = 0.168168
  grid = 90 90 90
  stencil order = 5
  estimated absolute RMS force accuracy = 0.00306518
  estimated relative force accuracy = 9.2307e-06
  3d grid and FFT values/proc = 21952 16200
